Version 4.1
SHEET 1 1332 680
WIRE 576 0 400 0
WIRE 240 48 240 0
WIRE 192 64 144 64
WIRE 192 112 176 112
WIRE 768 112 768 64
WIRE 464 128 464 96
WIRE 400 144 400 0
WIRE 432 144 400 144
WIRE 928 144 800 144
WIRE 576 160 576 0
WIRE 576 160 496 160
WIRE 736 160 576 160
WIRE 240 176 240 128
WIRE 432 176 240 176
WIRE 240 288 240 256
WIRE 240 400 240 368
FLAG 736 128 2.048V_ref
IOPIN 736 128 In
FLAG 928 144 RPi
IOPIN 928 144 Out
FLAG 240 400 0
FLAG 176 112 3.3V
IOPIN 176 112 In
FLAG 464 96 3.3V
IOPIN 464 96 In
FLAG 464 192 0
FLAG 768 176 0
FLAG 768 64 3.3V
IOPIN 768 64 In
FLAG 144 64 0
FLAG 240 0 0
SYMBOL Misc\\xvaristor 224 272 R0
SYMATTR InstName Strain_Sensor
SYMATTR Value ""
SYMBOL OpAmps\\opamp2 464 96 R0
SYMATTR InstName U1
SYMATTR Value OPA333
SYMBOL OpAmps\\opamp2 768 80 R0
SYMATTR InstName PGA=2
SYMATTR Value AD7124-8
SYMBOL res 224 160 R0
SYMATTR InstName 2ohms
SYMBOL g 240 144 M180
SYMATTR InstName 7.5mA
SYMATTR Value ""
TEXT 280 88 Left 2 ;LT3092
TEXT 72 144 Left 2 ;LT3045
TEXT 440 -16 Left 2 ;x69 Gain
