Version 4.1
SHEET 1 880 680
WIRE 48 48 48 16
WIRE 160 48 48 48
WIRE 240 80 240 48
WIRE 288 80 240 80
WIRE 48 112 48 48
WIRE 48 256 48 192
WIRE 240 256 240 80
WIRE 240 256 48 256
FLAG 48 16 V1
FLAG 240 256 0
FLAG 288 80 Vg
SYMBOL voltage 48 96 R0
WINDOW 123 0 0 Left 0
WINDOW 39 0 0 Left 0
SYMATTR InstName V1
SYMATTR Value 2
SYMBOL res 256 32 R90
WINDOW 0 0 56 VBottom 2
WINDOW 3 32 56 VTop 2
SYMATTR InstName Rg
SYMATTR Value 2
TEXT 0 272 Left 2 ;.op
TEXT 144 288 Left 2 !.tran 0 1 0 0.1 startup
